/*--------------------------------*- C++ -*----------------------------------*\
  =========                 |
  \\      /  F ield         | OpenFOAM: The Open Source CFD Toolbox
   \\    /   O peration     | Website:  https://openfoam.org
    \\  /    A nd           | Version:  dev
     \\/     M anipulation  |
\*---------------------------------------------------------------------------*/
FoamFile
{
    format      binary;
    class       polyBoundaryMesh;
    location    "constant/polyMesh";
    object      boundary;
}
// * * * * * * * * * * * * * * * * * * * * * * * * * * * * * * * * * * * * * //

10
(
    inlet
    {
        type            patch;
        nFaces          2210;
        startFace       2431750;
    }
    outlet
    {
        type            patch;
        nFaces          2208;
        startFace       2433960;
    }
    outerCylinder
    {
        type            wall;
        inGroups        List<word> 1(wall);
        nFaces          10301;
        startFace       2436168;
    }
    propeller
    {
        type            wall;
        inGroups        List<word> 1(wall);
        nFaces          39261;
        startFace       2446469;
    }
    nonCouple1
    {
        type            patch;
        inGroups        List<word> 1(nonCouple);
        nFaces          26229;
        startFace       2485730;
    }
    nonCouple2
    {
        type            patch;
        inGroups        List<word> 1(nonCouple);
        nFaces          26229;
        startFace       2511959;
    }
    nonConformalCyclic_on_nonCouple1
    {
        type            nonConformalCyclic;
        inGroups        List<word> 1(nonConformalCyclic);
        nFaces          0;
        startFace       2538188;
        matchTolerance  0.0001;
        neighbourPatch  nonConformalCyclic_on_nonCouple2;
        transformType   none;
        originalPatch   nonCouple1;
    }
    nonConformalCyclic_on_nonCouple2
    {
        type            nonConformalCyclic;
        inGroups        List<word> 1(nonConformalCyclic);
        nFaces          0;
        startFace       2538188;
        matchTolerance  0.0001;
        neighbourPatch  nonConformalCyclic_on_nonCouple1;
        transformType   none;
        originalPatch   nonCouple2;
    }
    nonConformalError_on_nonCouple1
    {
        type            nonConformalError;
        inGroups        List<word> 1(nonConformalError);
        nFaces          0;
        startFace       2538188;
        originalPatch   nonCouple1;
    }
    nonConformalError_on_nonCouple2
    {
        type            nonConformalError;
        inGroups        List<word> 1(nonConformalError);
        nFaces          0;
        startFace       2538188;
        originalPatch   nonCouple2;
    }
)

// ************************************************************************* //
